*SPEF "IEEE 1481-1999"
*DESIGN "Bicubic"
*DATE "Mon Sep  2 19:57:30 2024"
*VENDOR "SYNOPSYS INC"
*PROGRAM "Synopsys Design Compiler cmos"
*VERSION "U-2022.12"
*DESIGN_FLOW "SYNTHESIS"
*DIVIDER /
*DELIMITER :
*BUS_DELIMITER []
*T_UNIT 1.0 NS
*C_UNIT 1.0 PF
*R_UNIT 1.0 KOHM
*L_UNIT 1.0 HENRY

*PORTS

CLK I *L 0.000e+00 *S 0.000e+00 0.000e+00 
RST I *L 0.000e+00 *S 1.354e-03 1.354e-03 
V0\[6\] I *L 0.000e+00 *S 1.250e-03 1.250e-03 
V0\[5\] I *L 0.000e+00 *S 6.159e-03 6.159e-03 
V0\[4\] I *L 0.000e+00 *S 3.714e-03 3.714e-03 
V0\[3\] I *L 0.000e+00 *S 4.402e-03 4.402e-03 
V0\[2\] I *L 0.000e+00 *S 5.216e-03 5.216e-03 
V0\[1\] I *L 0.000e+00 *S 5.960e-03 5.960e-03 
V0\[0\] I *L 0.000e+00 *S 7.653e-03 7.653e-03 
H0\[6\] I *L 0.000e+00 *S 1.250e-03 1.250e-03 
H0\[5\] I *L 0.000e+00 *S 6.159e-03 6.159e-03 
H0\[4\] I *L 0.000e+00 *S 3.614e-03 3.614e-03 
H0\[3\] I *L 0.000e+00 *S 4.702e-03 4.702e-03 
H0\[2\] I *L 0.000e+00 *S 5.176e-03 5.176e-03 
H0\[1\] I *L 0.000e+00 *S 5.079e-03 5.079e-03 
H0\[0\] I *L 0.000e+00 *S 4.870e-03 4.870e-03 
SW\[4\] I *L 0.000e+00 *S 4.701e-03 4.701e-03 
SW\[3\] I *L 0.000e+00 *S 4.887e-03 4.887e-03 
SW\[2\] I *L 0.000e+00 *S 3.583e-03 3.583e-03 
SW\[1\] I *L 0.000e+00 *S 4.901e-03 4.901e-03 
SW\[0\] I *L 0.000e+00 *S 4.770e-03 4.770e-03 
SH\[4\] I *L 0.000e+00 *S 4.701e-03 4.701e-03 
SH\[3\] I *L 0.000e+00 *S 4.887e-03 4.887e-03 
SH\[2\] I *L 0.000e+00 *S 3.583e-03 3.583e-03 
SH\[1\] I *L 0.000e+00 *S 4.901e-03 4.901e-03 
SH\[0\] I *L 0.000e+00 *S 4.770e-03 4.770e-03 
TW\[5\] I *L 0.000e+00 *S 2.598e-03 2.598e-03 
TW\[4\] I *L 0.000e+00 *S 2.474e-03 2.474e-03 
TW\[3\] I *L 0.000e+00 *S 3.748e-03 3.748e-03 
TW\[2\] I *L 0.000e+00 *S 2.452e-03 2.452e-03 
TW\[1\] I *L 0.000e+00 *S 3.741e-03 3.741e-03 
TW\[0\] I *L 0.000e+00 *S 3.647e-03 3.647e-03 
TH\[5\] I *L 0.000e+00 *S 2.604e-03 2.604e-03 
TH\[4\] I *L 0.000e+00 *S 2.474e-03 2.474e-03 
TH\[3\] I *L 0.000e+00 *S 3.748e-03 3.748e-03 
TH\[2\] I *L 0.000e+00 *S 2.452e-03 2.452e-03 
TH\[1\] I *L 0.000e+00 *S 3.741e-03 3.741e-03 
TH\[0\] I *L 0.000e+00 *S 3.625e-03 3.625e-03 
DONE O *L 1.000e+00 *S 5.683e-01 3.875e-01 

*R_NET RST 1.354e-02
*DRIVER RST
*CELL NULL
*C2_R1_C1 6.768e-03 5.667e-06 6.768e-03 
*LOADS
*RC U4261:A 7.670e-08
*END

*R_NET V0\[6\] 1.250e-02
*DRIVER V0\[6\]
*CELL NULL
*C2_R1_C1 6.249e-03 5.667e-06 6.249e-03 
*LOADS
*RC U5776:A 7.082e-08
*END

*R_NET V0\[5\] 6.159e-02
*DRIVER V0\[5\]
*CELL NULL
*C2_R1_C1 3.080e-02 2.833e-05 3.080e-02 
*LOADS
*RC U3911:A 7.523e-08
*RC U3913:A 6.945e-08
*RC U5773:B 6.990e-08
*RC U5774:B 6.990e-08
*RC U5778:A 6.455e-08
*END

*R_NET V0\[4\] 3.714e-02
*DRIVER V0\[4\]
*CELL NULL
*C2_R1_C1 1.857e-02 1.700e-05 1.857e-02 
*LOADS
*RC U696:B 6.822e-08
*RC U707:B 7.093e-08
*RC U5752:B 7.131e-08
*END

*R_NET V0\[3\] 4.402e-02
*DRIVER V0\[3\]
*CELL NULL
*C2_R1_C1 2.201e-02 1.700e-05 2.201e-02 
*LOADS
*RC U923:B 7.093e-08
*RC U5744:B 1.103e-07
*RC U5756:B 6.822e-08
*END

*R_NET V0\[2\] 5.216e-02
*DRIVER V0\[2\]
*CELL NULL
*C2_R1_C1 2.608e-02 1.700e-05 2.608e-02 
*LOADS
*RC U3411:B 1.430e-07
*RC U4235:B 8.314e-08
*RC U4905:A 6.945e-08
*END

*R_NET V0\[1\] 5.960e-02
*DRIVER V0\[1\]
*CELL NULL
*C2_R1_C1 2.980e-02 1.700e-05 2.980e-02 
*LOADS
*RC U843:B 1.430e-07
*RC U916:B 1.148e-07
*RC U3291:CI 7.991e-08
*END

*R_NET V0\[0\] 7.653e-02
*DRIVER V0\[0\]
*CELL NULL
*C2_R1_C1 3.826e-02 2.833e-05 3.826e-02 
*LOADS
*RC U4663:A 8.575e-08
*RC U2418:A 6.913e-08
*RC U849:B 1.430e-07
*RC U853:A 7.082e-08
*RC U5099:A 6.496e-08
*END

*R_NET H0\[6\] 1.250e-02
*DRIVER H0\[6\]
*CELL NULL
*C2_R1_C1 6.249e-03 5.667e-06 6.249e-03 
*LOADS
*RC U5757:A 7.082e-08
*END

*R_NET H0\[5\] 6.159e-02
*DRIVER H0\[5\]
*CELL NULL
*C2_R1_C1 3.080e-02 2.833e-05 3.080e-02 
*LOADS
*RC U3910:A 7.523e-08
*RC U3912:A 6.945e-08
*RC U5161:B 6.990e-08
*RC U5160:B 6.990e-08
*RC U5759:A 6.455e-08
*END

*R_NET H0\[4\] 3.614e-02
*DRIVER H0\[4\]
*CELL NULL
*C2_R1_C1 1.807e-02 1.700e-05 1.807e-02 
*LOADS
*RC U883:B 6.524e-08
*RC U5721:B 7.131e-08
*RC U5738:B 6.822e-08
*END

*R_NET H0\[3\] 4.702e-02
*DRIVER H0\[3\]
*CELL NULL
*C2_R1_C1 2.351e-02 1.700e-05 2.351e-02 
*LOADS
*RC U920:B 8.797e-08
*RC U5712:B 1.103e-07
*RC U5726:B 6.822e-08
*END

*R_NET H0\[2\] 5.176e-02
*DRIVER H0\[2\]
*CELL NULL
*C2_R1_C1 2.588e-02 1.700e-05 2.588e-02 
*LOADS
*RC U851:B 1.103e-07
*RC U5710:B 1.148e-07
*RC U5716:B 6.822e-08
*END

*R_NET H0\[1\] 5.079e-02
*DRIVER H0\[1\]
*CELL NULL
*C2_R1_C1 2.539e-02 1.700e-05 2.539e-02 
*LOADS
*RC U3914:A 6.945e-08
*RC U4877:B 1.430e-07
*RC U5687:CI 7.534e-08
*END

*R_NET H0\[0\] 4.870e-02
*DRIVER H0\[0\]
*CELL NULL
*C2_R1_C1 2.435e-02 2.267e-05 2.435e-02 
*LOADS
*RC U3305:A 6.496e-08
*RC U3892:A 7.299e-08
*RC U5686:A 7.278e-08
*RC U7202:B 6.524e-08
*END

*R_NET SW\[4\] 4.701e-02
*DRIVER SW\[4\]
*CELL NULL
*C2_R1_C1 2.351e-02 2.267e-05 2.351e-02 
*LOADS
*RC U5825:A1N 6.384e-08
*RC U5825:B1 7.302e-08
*RC U7242:B 6.479e-08
*RC U7243:A0 6.476e-08
*END

*R_NET SW\[3\] 4.887e-02
*DRIVER SW\[3\]
*CELL NULL
*C2_R1_C1 2.443e-02 2.267e-05 2.443e-02 
*LOADS
*RC U267:B 6.524e-08
*RC U5827:A0N 6.544e-08
*RC U5827:B0 7.266e-08
*RC U5941:B 7.357e-08
*END

*R_NET SW\[2\] 3.583e-02
*DRIVER SW\[2\]
*CELL NULL
*C2_R1_C1 1.792e-02 1.700e-05 1.792e-02 
*LOADS
*RC U5823:A0N 6.544e-08
*RC U5823:B0 7.266e-08
*RC U5939:A 6.496e-08
*END

*R_NET SW\[1\] 4.901e-02
*DRIVER SW\[1\]
*CELL NULL
*C2_R1_C1 2.451e-02 2.267e-05 2.451e-02 
*LOADS
*RC U5829:A0N 6.544e-08
*RC U5829:B0 7.266e-08
*RC U5928:B 7.319e-08
*RC U5938:A 6.646e-08
*END

*R_NET SW\[0\] 4.770e-02
*DRIVER SW\[0\]
*CELL NULL
*C2_R1_C1 2.385e-02 2.267e-05 2.385e-02 
*LOADS
*RC U5830:A1 7.426e-08
*RC U5831:A1 6.632e-08
*RC U5892:A 6.496e-08
*RC U5938:B 6.479e-08
*END

*R_NET SH\[4\] 4.701e-02
*DRIVER SH\[4\]
*CELL NULL
*C2_R1_C1 2.351e-02 2.267e-05 2.351e-02 
*LOADS
*RC U5835:A1N 6.384e-08
*RC U5835:B1 7.302e-08
*RC U7245:B 6.479e-08
*RC U7246:A0 6.476e-08
*END

*R_NET SH\[3\] 4.887e-02
*DRIVER SH\[3\]
*CELL NULL
*C2_R1_C1 2.443e-02 2.267e-05 2.443e-02 
*LOADS
*RC U266:B 6.524e-08
*RC U5836:A0N 6.544e-08
*RC U5836:B0 7.266e-08
*RC U5937:B 7.357e-08
*END

*R_NET SH\[2\] 3.583e-02
*DRIVER SH\[2\]
*CELL NULL
*C2_R1_C1 1.792e-02 1.700e-05 1.792e-02 
*LOADS
*RC U5833:A0N 6.544e-08
*RC U5833:B0 7.266e-08
*RC U5935:A 6.496e-08
*END

*R_NET SH\[1\] 4.901e-02
*DRIVER SH\[1\]
*CELL NULL
*C2_R1_C1 2.451e-02 2.267e-05 2.451e-02 
*LOADS
*RC U5838:A0N 6.544e-08
*RC U5838:B0 7.266e-08
*RC U5927:B 7.319e-08
*RC U5934:A 6.646e-08
*END

*R_NET SH\[0\] 4.770e-02
*DRIVER SH\[0\]
*CELL NULL
*C2_R1_C1 2.385e-02 2.267e-05 2.385e-02 
*LOADS
*RC U5839:A1 7.426e-08
*RC U5840:A1 6.632e-08
*RC U5891:A 6.496e-08
*RC U5934:B 6.479e-08
*END

*R_NET TW\[5\] 2.598e-02
*DRIVER TW\[5\]
*CELL NULL
*C2_R1_C1 1.299e-02 1.133e-05 1.299e-02 
*LOADS
*RC U2405:B 7.319e-08
*RC U5261:A 7.401e-08
*END

*R_NET TW\[4\] 2.474e-02
*DRIVER TW\[4\]
*CELL NULL
*C2_R1_C1 1.237e-02 1.133e-05 1.237e-02 
*LOADS
*RC U5258:A 7.523e-08
*RC U5610:A 6.496e-08
*END

*R_NET TW\[3\] 3.748e-02
*DRIVER TW\[3\]
*CELL NULL
*C2_R1_C1 1.874e-02 1.700e-05 1.874e-02 
*LOADS
*RC U5251:A 7.401e-08
*RC U5609:B 6.479e-08
*RC U5929:B 7.357e-08
*END

*R_NET TW\[2\] 2.452e-02
*DRIVER TW\[2\]
*CELL NULL
*C2_R1_C1 1.226e-02 1.133e-05 1.226e-02 
*LOADS
*RC U5254:A 7.401e-08
*RC U5607:A 6.496e-08
*END

*R_NET TW\[1\] 3.741e-02
*DRIVER TW\[1\]
*CELL NULL
*C2_R1_C1 1.870e-02 1.700e-05 1.870e-02 
*LOADS
*RC U5244:A 7.401e-08
*RC U5606:B 6.479e-08
*RC U5926:B 7.319e-08
*END

*R_NET TW\[0\] 3.647e-02
*DRIVER TW\[0\]
*CELL NULL
*C2_R1_C1 1.823e-02 1.700e-05 1.823e-02 
*LOADS
*RC U5242:A 7.523e-08
*RC U5606:A 6.646e-08
*RC U5890:A 6.496e-08
*END

*R_NET TH\[5\] 2.604e-02
*DRIVER TH\[5\]
*CELL NULL
*C2_R1_C1 1.302e-02 1.133e-05 1.302e-02 
*LOADS
*RC U5945:B 7.357e-08
*RC U5962:A 7.401e-08
*END

*R_NET TH\[4\] 2.474e-02
*DRIVER TH\[4\]
*CELL NULL
*C2_R1_C1 1.237e-02 1.133e-05 1.237e-02 
*LOADS
*RC U5943:A 6.496e-08
*RC U5953:A 7.523e-08
*END

*R_NET TH\[3\] 3.748e-02
*DRIVER TH\[3\]
*CELL NULL
*C2_R1_C1 1.874e-02 1.700e-05 1.874e-02 
*LOADS
*RC U5933:B 7.357e-08
*RC U5942:B 6.479e-08
*RC U5968:A 7.401e-08
*END

*R_NET TH\[2\] 2.452e-02
*DRIVER TH\[2\]
*CELL NULL
*C2_R1_C1 1.226e-02 1.133e-05 1.226e-02 
*LOADS
*RC U5931:A 6.496e-08
*RC U5959:A 7.401e-08
*END

*R_NET TH\[1\] 3.741e-02
*DRIVER TH\[1\]
*CELL NULL
*C2_R1_C1 1.870e-02 1.700e-05 1.870e-02 
*LOADS
*RC U5925:B 7.319e-08
*RC U5930:B 6.479e-08
*RC U5955:A 7.401e-08
*END

*R_NET TH\[0\] 3.625e-02
*DRIVER TH\[0\]
*CELL NULL
*C2_R1_C1 1.813e-02 1.700e-05 1.813e-02 
*LOADS
*RC U5889:A 6.496e-08
*RC U5930:A 6.646e-08
*RC U5964:A 7.401e-08
*END

*R_NET rom_data\[7\] 5.870e-02
*DRIVER u_ImgROM:Q\[7\]
*CELL ImgROM
*C2_R1_C1 2.935e-02 2.833e-05 2.935e-02 
*LOADS
*RC U7199:B 7.346e-08
*RC U9508:A1 6.480e-08
*RC U9510:A1 6.480e-08
*RC U9512:A1 6.480e-08
*RC U9513:A1 6.480e-08
*END

*R_NET rom_data\[6\] 5.870e-02
*DRIVER u_ImgROM:Q\[6\]
*CELL ImgROM
*C2_R1_C1 2.935e-02 2.833e-05 2.935e-02 
*LOADS
*RC U7200:B 7.346e-08
*RC U9514:A1 6.480e-08
*RC U9515:A1 6.480e-08
*RC U9516:A1 6.480e-08
*RC U9517:A1 6.480e-08
*END

*R_NET rom_data\[5\] 5.870e-02
*DRIVER u_ImgROM:Q\[5\]
*CELL ImgROM
*C2_R1_C1 2.935e-02 2.833e-05 2.935e-02 
*LOADS
*RC U7194:B 7.346e-08
*RC U9518:A1 6.480e-08
*RC U9519:A1 6.480e-08
*RC U9520:A1 6.480e-08
*RC U9521:A1 6.480e-08
*END

*R_NET rom_data\[4\] 5.870e-02
*DRIVER u_ImgROM:Q\[4\]
*CELL ImgROM
*C2_R1_C1 2.935e-02 2.833e-05 2.935e-02 
*LOADS
*RC U7196:B 7.346e-08
*RC U9522:A1 6.480e-08
*RC U9523:A1 6.480e-08
*RC U9524:A1 6.480e-08
*RC U9525:A1 6.480e-08
*END

*R_NET rom_data\[3\] 5.870e-02
*DRIVER u_ImgROM:Q\[3\]
*CELL ImgROM
*C2_R1_C1 2.935e-02 2.833e-05 2.935e-02 
*LOADS
*RC U7197:B 7.346e-08
*RC U9526:A1 6.480e-08
*RC U9527:A1 6.480e-08
*RC U9528:A1 6.480e-08
*RC U9529:A1 6.480e-08
*END

*R_NET rom_data\[2\] 5.870e-02
*DRIVER u_ImgROM:Q\[2\]
*CELL ImgROM
*C2_R1_C1 2.935e-02 2.833e-05 2.935e-02 
*LOADS
*RC U7198:B 7.346e-08
*RC U9530:A1 6.480e-08
*RC U9531:A1 6.480e-08
*RC U9532:A1 6.480e-08
*RC U9533:A1 6.480e-08
*END

*R_NET rom_data\[1\] 5.870e-02
*DRIVER u_ImgROM:Q\[1\]
*CELL ImgROM
*C2_R1_C1 2.935e-02 2.833e-05 2.935e-02 
*LOADS
*RC U7201:B 7.346e-08
*RC U9534:A1 6.480e-08
*RC U9535:A1 6.480e-08
*RC U9536:A1 6.480e-08
*RC U9537:A1 6.480e-08
*END

*R_NET rom_data\[0\] 5.870e-02
*DRIVER u_ImgROM:Q\[0\]
*CELL ImgROM
*C2_R1_C1 2.935e-02 2.833e-05 2.935e-02 
*LOADS
*RC U7195:B 7.346e-08
*RC U9538:A1 6.480e-08
*RC U9539:A1 6.480e-08
*RC U9540:A1 6.480e-08
*RC U9541:A1 6.480e-08
*END

*R_NET rom_addr\[13\] 3.600e-02
*DRIVER U9505:Y
*CELL NAND3X6
*C2_R1_C1 1.800e-02 5.667e-06 1.800e-02 
*LOADS
*RC u_ImgROM:A\[13\] 2.040e-07
*END

*R_NET rom_addr\[12\] 3.600e-02
*DRIVER U9503:Y
*CELL XOR2X4
*C2_R1_C1 1.800e-02 5.667e-06 1.800e-02 
*LOADS
*RC u_ImgROM:A\[12\] 2.040e-07
*END

*R_NET rom_addr\[11\] 3.600e-02
*DRIVER U3311:Y
*CELL INVX8
*C2_R1_C1 1.800e-02 5.667e-06 1.800e-02 
*LOADS
*RC u_ImgROM:A\[11\] 2.040e-07
*END

*R_NET rom_addr\[10\] 3.600e-02
*DRIVER U4719:Y
*CELL XOR2X4
*C2_R1_C1 1.800e-02 5.667e-06 1.800e-02 
*LOADS
*RC u_ImgROM:A\[10\] 2.040e-07
*END

*R_NET rom_addr\[8\] 3.600e-02
*DRIVER U9507:Y
*CELL XOR2X4
*C2_R1_C1 1.800e-02 5.667e-06 1.800e-02 
*LOADS
*RC u_ImgROM:A\[8\] 2.040e-07
*END

*R_NET rom_addr\[7\] 3.600e-02
*DRIVER U5794:Y
*CELL XNOR2X4
*C2_R1_C1 1.800e-02 5.667e-06 1.800e-02 
*LOADS
*RC u_ImgROM:A\[7\] 2.040e-07
*END

*R_NET rom_addr\[6\] 3.600e-02
*DRIVER U5793:Y
*CELL XOR2X4
*C2_R1_C1 1.800e-02 5.667e-06 1.800e-02 
*LOADS
*RC u_ImgROM:A\[6\] 2.040e-07
*END

*R_NET rom_addr\[5\] 3.600e-02
*DRIVER U3932:Y
*CELL CLKXOR2X4
*C2_R1_C1 1.800e-02 5.667e-06 1.800e-02 
*LOADS
*RC u_ImgROM:A\[5\] 2.040e-07
*END

*R_NET rom_addr\[4\] 3.600e-02
*DRIVER U7212:Y
*CELL XNOR2X2
*C2_R1_C1 1.800e-02 5.667e-06 1.800e-02 
*LOADS
*RC u_ImgROM:A\[4\] 2.040e-07
*END

*R_NET rom_addr\[2\] 3.600e-02
*DRIVER U7211:Y
*CELL AOI21X1
*C2_R1_C1 1.800e-02 5.667e-06 1.800e-02 
*LOADS
*RC u_ImgROM:A\[2\] 2.040e-07
*END

*R_NET rom_addr\[1\] 3.600e-02
*DRIVER U7209:Y
*CELL CLKMX2X4
*C2_R1_C1 1.800e-02 5.667e-06 1.800e-02 
*LOADS
*RC u_ImgROM:A\[1\] 2.040e-07
*END

*R_NET rom_addr\[0\] 3.600e-02
*DRIVER U2799:Y
*CELL MXI2X4
*C2_R1_C1 1.800e-02 5.667e-06 1.800e-02 
*LOADS
*RC u_ImgROM:A\[0\] 2.040e-07
*END

*R_NET sram_addr\[13\] 3.827e-02
*DRIVER sram_addr_reg_reg\[13\]:Q
*CELL DFFRX1
*C2_R1_C1 1.914e-02 1.133e-05 1.914e-02 
*LOADS
*RC u_ResultSRAM:A\[13\] 1.530e-07
*RC U9483:A0N 6.387e-08
*END

*R_NET sram_addr\[12\] 5.068e-02
*DRIVER sram_addr_reg_reg\[12\]:Q
*CELL DFFRX1
*C2_R1_C1 2.534e-02 1.700e-05 2.534e-02 
*LOADS
*RC u_ResultSRAM:A\[12\] 1.530e-07
*RC U3328:B 6.682e-08
*RC U9482:A0 6.739e-08
*END

*R_NET sram_addr\[11\] 6.254e-02
*DRIVER sram_addr_reg_reg\[11\]:Q
*CELL DFFRX1
*C2_R1_C1 3.127e-02 2.267e-05 3.127e-02 
*LOADS
*RC u_ResultSRAM:A\[11\] 1.530e-07
*RC U3323:B 6.524e-08
*RC U5910:B 7.093e-08
*RC U5913:B 6.524e-08
*END

*R_NET sram_addr\[10\] 2.700e-02
*DRIVER sram_addr_reg_reg\[10\]:Q
*CELL DFFRX1
*C2_R1_C1 1.350e-02 5.667e-06 1.350e-02 
*LOADS
*RC u_ResultSRAM:A\[10\] 1.530e-07
*END

*R_NET sram_addr\[9\] 2.700e-02
*DRIVER sram_addr_reg_reg\[9\]:Q
*CELL DFFRX1
*C2_R1_C1 1.350e-02 5.667e-06 1.350e-02 
*LOADS
*RC u_ResultSRAM:A\[9\] 1.530e-07
*END

*R_NET sram_addr\[8\] 6.192e-02
*DRIVER sram_addr_reg_reg\[8\]:Q
*CELL DFFRX1
*C2_R1_C1 3.096e-02 2.267e-05 3.096e-02 
*LOADS
*RC u_ResultSRAM:A\[8\] 1.530e-07
*RC U5853:B 6.524e-08
*RC U5875:A1 6.632e-08
*RC U5876:A1 6.632e-08
*END

*R_NET sram_addr\[7\] 6.224e-02
*DRIVER sram_addr_reg_reg\[7\]:Q
*CELL DFFRX1
*C2_R1_C1 3.112e-02 2.267e-05 3.112e-02 
*LOADS
*RC u_ResultSRAM:A\[7\] 1.530e-07
*RC U5853:A 6.644e-08
*RC U5875:B0 6.584e-08
*RC U5876:A0 6.739e-08
*END

*R_NET sram_addr\[6\] 3.870e-02
*DRIVER sram_addr_reg_reg\[6\]:Q
*CELL DFFRX1
*C2_R1_C1 1.935e-02 1.133e-05 1.935e-02 
*LOADS
*RC u_ResultSRAM:A\[6\] 1.530e-07
*RC U5903:A1 6.632e-08
*END

*R_NET sram_addr\[5\] 3.862e-02
*DRIVER sram_addr_reg_reg\[5\]:Q
*CELL DFFRX1
*C2_R1_C1 1.931e-02 1.133e-05 1.931e-02 
*LOADS
*RC u_ResultSRAM:A\[5\] 1.530e-07
*RC U5903:B0 6.584e-08
*END

*R_NET sram_addr\[4\] 6.192e-02
*DRIVER sram_addr_reg_reg\[4\]:Q
*CELL DFFRX1
*C2_R1_C1 3.096e-02 2.267e-05 3.096e-02 
*LOADS
*RC u_ResultSRAM:A\[4\] 1.530e-07
*RC U5849:B 6.524e-08
*RC U5869:A1 6.632e-08
*RC U5870:A1 6.632e-08
*END

*R_NET sram_addr\[3\] 6.224e-02
*DRIVER sram_addr_reg_reg\[3\]:Q
*CELL DFFRX1
*C2_R1_C1 3.112e-02 2.267e-05 3.112e-02 
*LOADS
*RC u_ResultSRAM:A\[3\] 1.530e-07
*RC U5849:A 6.644e-08
*RC U5869:B0 6.584e-08
*RC U5870:A0 6.739e-08
*END

*R_NET sram_addr\[2\] 6.220e-02
*DRIVER sram_addr_reg_reg\[2\]:Q
*CELL DFFRX1
*C2_R1_C1 3.110e-02 2.267e-05 3.110e-02 
*LOADS
*RC u_ResultSRAM:A\[2\] 1.530e-07
*RC U5848:B 6.682e-08
*RC U5872:A1 6.632e-08
*RC U5873:A1 6.632e-08
*END

*R_NET sram_addr\[1\] 6.240e-02
*DRIVER sram_addr_reg_reg\[1\]:Q
*CELL DFFRX1
*C2_R1_C1 3.120e-02 2.267e-05 3.120e-02 
*LOADS
*RC u_ResultSRAM:A\[1\] 1.530e-07
*RC U5848:A 6.738e-08
*RC U5872:B0 6.584e-08
*RC U5873:A0 6.739e-08
*END

*R_NET sram_addr\[0\] 7.323e-02
*DRIVER sram_addr_reg_reg\[0\]:Q
*CELL DFFRX1
*C2_R1_C1 3.661e-02 2.833e-05 3.661e-02 
*LOADS
*RC u_ResultSRAM:A\[0\] 1.530e-07
*RC U3345:B 6.682e-08
*RC U5848:C 6.592e-08
*RC U5867:A1 6.398e-08
*RC U5972:B 6.524e-08
*END

*R_NET sram_data\[7\] 1.100e-02
*DRIVER U7199:Y
*CELL CLKMX2X2
*C2_R1_C1 5.500e-03 5.667e-06 5.500e-03 
*LOADS
*RC u_ResultSRAM:D\[7\] 6.233e-08
*END

*R_NET sram_data\[6\] 1.100e-02
*DRIVER U7200:Y
*CELL CLKMX2X2
*C2_R1_C1 5.500e-03 5.667e-06 5.500e-03 
*LOADS
*RC u_ResultSRAM:D\[6\] 6.233e-08
*END

*R_NET sram_data\[5\] 1.100e-02
*DRIVER U7194:Y
*CELL CLKMX2X2
*C2_R1_C1 5.500e-03 5.667e-06 5.500e-03 
*LOADS
*RC u_ResultSRAM:D\[5\] 6.233e-08
*END

*R_NET sram_data\[4\] 1.100e-02
*DRIVER U7196:Y
*CELL CLKMX2X2
*C2_R1_C1 5.500e-03 5.667e-06 5.500e-03 
*LOADS
*RC u_ResultSRAM:D\[4\] 6.233e-08
*END

*R_NET sram_data\[3\] 1.100e-02
*DRIVER U7197:Y
*CELL CLKMX2X2
*C2_R1_C1 5.500e-03 5.667e-06 5.500e-03 
*LOADS
*RC u_ResultSRAM:D\[3\] 6.233e-08
*END

*R_NET sram_data\[2\] 1.100e-02
*DRIVER U7198:Y
*CELL CLKMX2X2
*C2_R1_C1 5.500e-03 5.667e-06 5.500e-03 
*LOADS
*RC u_ResultSRAM:D\[2\] 6.233e-08
*END

*R_NET sram_data\[1\] 1.100e-02
*DRIVER U7201:Y
*CELL CLKMX2X2
*C2_R1_C1 5.500e-03 5.667e-06 5.500e-03 
*LOADS
*RC u_ResultSRAM:D\[1\] 6.233e-08
*END

*R_NET sram_data\[0\] 1.100e-02
*DRIVER U7195:Y
*CELL CLKMX2X2
*C2_R1_C1 5.500e-03 5.667e-06 5.500e-03 
*LOADS
*RC u_ResultSRAM:D\[0\] 6.233e-08
*END

*R_NET state\[2\] 7.991e-02
*DRIVER state_reg\[2\]:Q
*CELL DFFRX4
*C2_R1_C1 3.995e-02 2.833e-05 3.995e-02 
*LOADS
*RC U4233:B 8.800e-08
*RC U5271:B 6.479e-08
*RC U5272:B 6.524e-08
*RC U5786:B 1.683e-07
*RC U7221:A 6.646e-08
*END

*R_NET state\[1\] 8.726e-02
*DRIVER state_reg\[1\]:Q
*CELL DFFRHQX4
*C2_R1_C1 4.363e-02 3.400e-05 4.363e-02 
*LOADS
*RC U4266:B 6.524e-08
*RC U4284:C 6.707e-08
*RC U5240:A 6.646e-08
*RC U5271:A 6.646e-08
*RC U5272:A 6.644e-08
*RC U5787:B 1.628e-07
*END

*R_NET X_count\[5\] 1.292e-02
*DRIVER X_count_reg\[5\]:Q
*CELL DFFRX4
*C2_R1_C1 6.458e-03 5.667e-06 6.458e-03 
*LOADS
*RC U5260:B 7.319e-08
*END

*R_NET X_count\[4\] 2.922e-02
*DRIVER X_count_reg\[4\]:Q
*CELL DFFRX4
*C2_R1_C1 1.461e-02 1.133e-05 1.461e-02 
*LOADS
*RC U1968:B 9.239e-08
*RC U5257:B 7.319e-08
*END

*R_NET X_count\[3\] 1.143e-02
*DRIVER X_count_reg\[3\]:Q
*CELL DFFRX4
*C2_R1_C1 5.717e-03 5.667e-06 5.717e-03 
*LOADS
*RC U5249:B 6.479e-08
*END

*R_NET X_count\[2\] 3.936e-02
*DRIVER X_count_reg\[2\]:QN
*CELL DFFSX4
*C2_R1_C1 1.968e-02 1.700e-05 1.968e-02 
*LOADS
*RC U1960:A 8.966e-08
*RC U5246:B 6.682e-08
*RC U5252:B0 6.658e-08
*END

*R_NET X_count\[1\] 3.637e-02
*DRIVER X_count_reg\[1\]:Q
*CELL DFFRX4
*C2_R1_C1 1.819e-02 1.700e-05 1.819e-02 
*LOADS
*RC U5243:B 7.319e-08
*RC U5246:C 6.592e-08
*RC U5252:A1 6.700e-08
*END

*R_NET X_count\[0\] 3.079e-02
*DRIVER X_count_reg\[0\]:Q
*CELL DFFRHQX4
*C2_R1_C1 1.539e-02 1.133e-05 1.539e-02 
*LOADS
*RC U1980:A 1.055e-07
*RC U5241:A 6.899e-08
*END

*R_NET hor_ratio_num\[3\] 3.501e-02
*DRIVER hor_ratio_num_reg\[3\]:Q
*CELL DFFRHQX4
*C2_R1_C1 1.750e-02 1.133e-05 1.750e-02 
*LOADS
*RC U1960:B 9.289e-08
*RC U1964:A 1.055e-07
*END

*R_NET Y_count\[5\] 1.292e-02
*DRIVER Y_count_reg\[5\]:Q
*CELL DFFRX4
*C2_R1_C1 6.458e-03 5.667e-06 6.458e-03 
*LOADS
*RC U5961:B 7.319e-08
*END

*R_NET Y_count\[4\] 1.218e-02
*DRIVER Y_count_reg\[4\]:Q
*CELL DFFRX4
*C2_R1_C1 6.088e-03 5.667e-06 6.088e-03 
*LOADS
*RC U5951:A 6.899e-08
*END

*R_NET Y_count\[3\] 1.151e-02
*DRIVER Y_count_reg\[3\]:Q
*CELL DFFRX4
*C2_R1_C1 5.757e-03 5.667e-06 5.757e-03 
*LOADS
*RC U5950:B 6.524e-08
*END

*R_NET Y_count\[2\] 5.585e-02
*DRIVER Y_count_reg\[2\]:Q
*CELL DFFRX4
*C2_R1_C1 2.793e-02 1.133e-05 2.793e-02 
*LOADS
*RC U4430:A 2.475e-07
*RC U5238:A 6.899e-08
*END

*R_NET Y_count\[1\] 5.737e-02
*DRIVER Y_count_reg\[1\]:Q
*CELL DFFRX4
*C2_R1_C1 2.869e-02 1.133e-05 2.869e-02 
*LOADS
*RC U1985:A 2.475e-07
*RC U1989:A 7.762e-08
*END

*R_NET Y_count\[0\] 5.188e-02
*DRIVER Y_count_reg\[0\]:Q
*CELL DFFRX4
*C2_R1_C1 2.594e-02 2.267e-05 2.594e-02 
*LOADS
*RC U5954:A 7.401e-08
*RC U5957:A0 6.779e-08
*RC U5964:B 7.319e-08
*RC U5971:S0 7.900e-08
*END

*R_NET hor_ratio_den\[5\] 9.880e-02
*DRIVER hor_ratio_den_reg\[5\]:QN
*CELL DFFSX2
*C2_R1_C1 4.940e-02 3.967e-05 4.940e-02 
*LOADS
*RC U1515:B0 7.017e-08
*RC U1875:A 7.762e-08
*RC U3295:A 8.701e-08
*RC U4743:B 1.133e-07
*RC U5354:A 7.523e-08
*RC U6323:B 7.131e-08
*RC U6411:B 6.524e-08
*END

*R_NET hor_ratio_den\[4\] 4.829e-02
*DRIVER hor_ratio_den_reg\[4\]:Q
*CELL DFFRX2
*C2_R1_C1 2.415e-02 1.700e-05 2.415e-02 
*LOADS
*RC U1919:A 8.346e-08
*RC U2434:A 7.762e-08
*RC U5332:A 1.126e-07
*END

*R_NET hor_ratio_den\[3\] 6.849e-02
*DRIVER hor_ratio_den_reg\[3\]:Q
*CELL DFFRX2
*C2_R1_C1 3.424e-02 1.700e-05 3.424e-02 
*LOADS
*RC U5327:A 1.074e-07
*RC U4664:A 1.514e-07
*RC U5320:A 1.293e-07
*END

*R_NET hor_ratio_den\[2\] 5.046e-02
*DRIVER hor_ratio_den_reg\[2\]:Q
*CELL DFFRX4
*C2_R1_C1 2.523e-02 1.133e-05 2.523e-02 
*LOADS
*RC U3296:A 1.980e-07
*RC U4287:B 8.800e-08
*END

*R_NET hor_ratio_den\[1\] 8.220e-02
*DRIVER hor_ratio_den_reg\[1\]:Q
*CELL DFFRX4
*C2_R1_C1 4.110e-02 2.267e-05 4.110e-02 
*LOADS
*RC U5322:A 1.980e-07
*RC U3862:B 7.319e-08
*RC U5329:A1 1.220e-07
*RC U5677:B0 7.266e-08
*END

*R_NET hor_ratio_den\[0\] 1.404e-01
*DRIVER hor_ratio_den_reg\[0\]:Q
*CELL DFFRX4
*C2_R1_C1 7.018e-02 5.100e-05 7.018e-02 
*LOADS
*RC U2420:B 1.103e-07
*RC U3709:B 1.430e-07
*RC U3718:B 1.103e-07
*RC U5065:A1 8.930e-08
*RC U6535:A1 6.796e-08
*RC U6332:B1 6.703e-08
*RC U5614:B 6.990e-08
*RC U5417:B 7.131e-08
*RC U5397:A1 6.632e-08
*END

*R_NET ver_ratio_den\[5\] 1.541e-01
*DRIVER ver_ratio_den_reg\[5\]:Q
*CELL DFFRX4
*C2_R1_C1 7.706e-02 5.667e-05 7.706e-02 
*LOADS
*RC U3905:A 1.074e-07
*RC U1909:B 8.797e-08
*RC U1947:A 6.864e-08
*RC U3393:B 6.524e-08
*RC U3881:A 7.401e-08
*RC U4373:B 1.683e-07
*RC U6859:B 6.479e-08
*RC U6829:S0 7.900e-08
*RC U6630:S0 7.900e-08
*RC U6150:S0 7.900e-08
*END

*R_NET ver_ratio_den\[4\] 2.175e-01
*DRIVER ver_ratio_den_reg\[4\]:Q
*CELL DFFRX4
*C2_R1_C1 1.087e-01 7.933e-05 1.087e-01 
*LOADS
*RC U902:B 7.319e-08
*RC U954:B 8.744e-08
*RC U990:B 1.148e-07
*RC U1613:A1 6.928e-08
*RC U1754:B 1.430e-07
*RC U1907:A 8.575e-08
*RC U2123:A 6.496e-08
*RC U5072:A 6.945e-08
*RC U3298:A 9.092e-08
*RC U4083:B 1.103e-07
*RC U4471:B1 1.171e-07
*RC U5569:B 7.319e-08
*RC U6094:B 6.524e-08
*RC U6698:B0 6.776e-08
*END

*R_NET ver_ratio_den\[3\] 1.259e-01
*DRIVER ver_ratio_den_reg\[3\]:Q
*CELL DFFRX4
*C2_R1_C1 6.297e-02 3.967e-05 6.297e-02 
*LOADS
*RC U1316:B 7.131e-08
*RC U5158:A 1.074e-07
*RC U1907:B 8.800e-08
*RC U1922:B 1.148e-07
*RC U1934:B 1.148e-07
*RC U2780:A 1.293e-07
*RC U1946:B 8.800e-08
*END

*R_NET ver_ratio_den\[2\] 3.886e-02
*DRIVER ver_ratio_den_reg\[2\]:Q
*CELL DFFRX4
*C2_R1_C1 1.943e-02 1.133e-05 1.943e-02 
*LOADS
*RC U1941:A 9.092e-08
*RC U1970:A 1.293e-07
*END

*R_NET ver_ratio_den\[1\] 1.861e-02
*DRIVER ver_ratio_den_reg\[1\]:Q
*CELL DFFRX4
*C2_R1_C1 9.307e-03 5.667e-06 9.307e-03 
*LOADS
*RC U1951:A 1.055e-07
*END

*R_NET ver_ratio_den\[0\] 3.266e-02
*DRIVER ver_ratio_den_reg\[0\]:Q
*CELL DFFRX4
*C2_R1_C1 1.633e-02 1.133e-05 1.633e-02 
*LOADS
*RC U3302:A 1.074e-07
*RC U1958:A 7.762e-08
*END

*R_NET Hor_Result\[0\]\[7\] 1.151e-02
*DRIVER Hor_Result_reg\[0\]\[7\]:Q
*CELL DFFRX1
*C2_R1_C1 5.757e-03 5.667e-06 5.757e-03 
*LOADS
*RC U3813:B 6.524e-08
*END

*R_NET Hor_Result\[0\]\[6\] 1.151e-02
*DRIVER Hor_Result_reg\[0\]\[6\]:Q
*CELL DFFRX2
*C2_R1_C1 5.757e-03 5.667e-06 5.757e-03 
*LOADS
*RC U3810:B 6.524e-08
*END

*R_NET Hor_Result\[0\]\[5\] 1.151e-02
*DRIVER Hor_Result_reg\[0\]\[5\]:Q
*CELL DFFRX2
*C2_R1_C1 5.757e-03 5.667e-06 5.757e-03 
*LOADS
*RC U3812:B 6.524e-08
*END

*R_NET Hor_Result\[0\]\[4\] 1.151e-02
*DRIVER Hor_Result_reg\[0\]\[4\]:Q
*CELL DFFRX1
*C2_R1_C1 5.757e-03 5.667e-06 5.757e-03 
*LOADS
*RC U3809:B 6.524e-08
*END

*R_NET Hor_Result\[0\]\[3\] 1.151e-02
*DRIVER Hor_Result_reg\[0\]\[3\]:Q
*CELL DFFRX1
*C2_R1_C1 5.757e-03 5.667e-06 5.757e-03 
*LOADS
*RC U3823:B 6.524e-08
*END

*R_NET Hor_Result\[0\]\[2\] 1.151e-02
*DRIVER Hor_Result_reg\[0\]\[2\]:Q
*CELL DFFRX1
*C2_R1_C1 5.757e-03 5.667e-06 5.757e-03 
*LOADS
*RC U3821:B 6.524e-08
*END

*R_NET Hor_Result\[0\]\[1\] 1.151e-02
*DRIVER Hor_Result_reg\[0\]\[1\]:Q
*CELL DFFRX1
*C2_R1_C1 5.757e-03 5.667e-06 5.757e-03 
*LOADS
*RC U3819:B 6.524e-08
*END

*R_NET Hor_Result\[0\]\[0\] 1.151e-02
*DRIVER Hor_Result_reg\[0\]\[0\]:Q
*CELL DFFRX1
*C2_R1_C1 5.757e-03 5.667e-06 5.757e-03 
*LOADS
*RC U3820:B 6.524e-08
*END

*R_NET Hor_Result\[1\]\[7\] 1.151e-02
*DRIVER Hor_Result_reg\[1\]\[7\]:Q
*CELL DFFRX1
*C2_R1_C1 5.757e-03 5.667e-06 5.757e-03 
*LOADS
*RC U3838:B 6.524e-08
*END

*R_NET Hor_Result\[1\]\[6\] 1.151e-02
*DRIVER Hor_Result_reg\[1\]\[6\]:Q
*CELL DFFRX2
*C2_R1_C1 5.757e-03 5.667e-06 5.757e-03 
*LOADS
*RC U3835:B 6.524e-08
*END

*R_NET Hor_Result\[1\]\[5\] 1.151e-02
*DRIVER Hor_Result_reg\[1\]\[5\]:Q
*CELL DFFRX2
*C2_R1_C1 5.757e-03 5.667e-06 5.757e-03 
*LOADS
*RC U3839:B 6.524e-08
*END

*R_NET Hor_Result\[1\]\[4\] 1.151e-02
*DRIVER Hor_Result_reg\[1\]\[4\]:Q
*CELL DFFRX1
*C2_R1_C1 5.757e-03 5.667e-06 5.757e-03 
*LOADS
*RC U3834:B 6.524e-08
*END

*R_NET Hor_Result\[1\]\[3\] 1.258e-02
*DRIVER Hor_Result_reg\[1\]\[3\]:Q
*CELL DFFRX1
*C2_R1_C1 6.292e-03 5.667e-06 6.292e-03 
*LOADS
*RC U9470:B 7.131e-08
*END

*R_NET Hor_Result\[1\]\[2\] 1.258e-02
*DRIVER Hor_Result_reg\[1\]\[2\]:Q
*CELL DFFRX1
*C2_R1_C1 6.292e-03 5.667e-06 6.292e-03 
*LOADS
*RC U9471:B 7.131e-08
*END

*R_NET Hor_Result\[1\]\[1\] 1.151e-02
*DRIVER Hor_Result_reg\[1\]\[1\]:Q
*CELL DFFRX1
*C2_R1_C1 5.757e-03 5.667e-06 5.757e-03 
*LOADS
*RC U3796:B 6.524e-08
*END

*R_NET Hor_Result\[1\]\[0\] 1.258e-02
*DRIVER Hor_Result_reg\[1\]\[0\]:Q
*CELL DFFRX1
*C2_R1_C1 6.292e-03 5.667e-06 6.292e-03 
*LOADS
*RC U9473:B 7.131e-08
*END

*R_NET Hor_Result\[2\]\[7\] 1.151e-02
*DRIVER Hor_Result_reg\[2\]\[7\]:Q
*CELL DFFRX1
*C2_R1_C1 5.757e-03 5.667e-06 5.757e-03 
*LOADS
*RC U3814:B 6.524e-08
*END

*R_NET Hor_Result\[2\]\[6\] 1.151e-02
*DRIVER Hor_Result_reg\[2\]\[6\]:Q
*CELL DFFRX2
*C2_R1_C1 5.757e-03 5.667e-06 5.757e-03 
*LOADS
*RC U3811:B 6.524e-08
*END

*R_NET Hor_Result\[2\]\[5\] 1.151e-02
*DRIVER Hor_Result_reg\[2\]\[5\]:Q
*CELL DFFRX2
*C2_R1_C1 5.757e-03 5.667e-06 5.757e-03 
*LOADS
*RC U3825:B 6.524e-08
*END

*R_NET Hor_Result\[2\]\[4\] 1.151e-02
*DRIVER Hor_Result_reg\[2\]\[4\]:Q
*CELL DFFRX1
*C2_R1_C1 5.757e-03 5.667e-06 5.757e-03 
*LOADS
*RC U3822:B 6.524e-08
*END

*R_NET Hor_Result\[2\]\[3\] 1.258e-02
*DRIVER Hor_Result_reg\[2\]\[3\]:Q
*CELL DFFRX1
*C2_R1_C1 6.292e-03 5.667e-06 6.292e-03 
*LOADS
*RC U9461:B 7.131e-08
*END

*R_NET Hor_Result\[2\]\[2\] 1.258e-02
*DRIVER Hor_Result_reg\[2\]\[2\]:Q
*CELL DFFRX1
*C2_R1_C1 6.292e-03 5.667e-06 6.292e-03 
*LOADS
*RC U9462:B 7.131e-08
*END

*R_NET Hor_Result\[2\]\[1\] 1.258e-02
*DRIVER Hor_Result_reg\[2\]\[1\]:Q
*CELL DFFRX1
*C2_R1_C1 6.292e-03 5.667e-06 6.292e-03 
*LOADS
*RC U9463:B 7.131e-08
*END

*R_NET Hor_Result\[2\]\[0\] 1.258e-02
*DRIVER Hor_Result_reg\[2\]\[0\]:Q
*CELL DFFRX1
*C2_R1_C1 6.292e-03 5.667e-06 6.292e-03 
*LOADS
*RC U9465:B 7.131e-08
*END

*R_NET Hor_Result\[3\]\[7\] 1.151e-02
*DRIVER Hor_Result_reg\[3\]\[7\]:Q
*CELL DFFRX1
*C2_R1_C1 5.757e-03 5.667e-06 5.757e-03 
*LOADS
*RC U3840:B 6.524e-08
*END

*R_NET Hor_Result\[3\]\[6\] 1.151e-02
*DRIVER Hor_Result_reg\[3\]\[6\]:Q
*CELL DFFRX2
*C2_R1_C1 5.757e-03 5.667e-06 5.757e-03 
*LOADS
*RC U3829:B 6.524e-08
*END

*R_NET Hor_Result\[3\]\[5\] 1.151e-02
*DRIVER Hor_Result_reg\[3\]\[5\]:Q
*CELL DFFRX2
*C2_R1_C1 5.757e-03 5.667e-06 5.757e-03 
*LOADS
*RC U3836:B 6.524e-08
*END

*R_NET Hor_Result\[3\]\[4\] 1.151e-02
*DRIVER Hor_Result_reg\[3\]\[4\]:Q
*CELL DFFRX1
*C2_R1_C1 5.757e-03 5.667e-06 5.757e-03 
*LOADS
*RC U3830:B 6.524e-08
*END

*R_NET Hor_Result\[3\]\[3\] 1.151e-02
*DRIVER Hor_Result_reg\[3\]\[3\]:Q
*CELL DFFRX1
*C2_R1_C1 5.757e-03 5.667e-06 5.757e-03 
*LOADS
*RC U3802:B 6.524e-08
*END

*R_NET Hor_Result\[3\]\[2\] 1.151e-02
*DRIVER Hor_Result_reg\[3\]\[2\]:Q
*CELL DFFRX1
*C2_R1_C1 5.757e-03 5.667e-06 5.757e-03 
*LOADS
*RC U3804:B 6.524e-08
*END

*R_NET Hor_Result\[3\]\[1\] 1.151e-02
*DRIVER Hor_Result_reg\[3\]\[1\]:Q
*CELL DFFRX1
*C2_R1_C1 5.757e-03 5.667e-06 5.757e-03 
*LOADS
*RC U3805:B 6.524e-08
*END

*R_NET Hor_Result\[3\]\[0\] 1.151e-02
*DRIVER Hor_Result_reg\[3\]\[0\]:Q
*CELL DFFRX1
*C2_R1_C1 5.757e-03 5.667e-06 5.757e-03 
*LOADS
*RC U2351:B 6.524e-08
*END

*R_NET p_0\[7\] 4.182e-02
*DRIVER U1524:Y
*CELL OAI21X1
*C2_R1_C1 2.091e-02 1.700e-05 2.091e-02 
*LOADS
*RC U1210:A 6.864e-08
*RC U1477:A 7.082e-08
*RC DP_OP_148J1_126_1256\/U14:B 9.754e-08
*END

*R_NET p_0\[6\] 2.922e-02
*DRIVER U1532:Y
*CELL OAI21X1
*C2_R1_C1 1.461e-02 1.133e-05 1.461e-02 
*LOADS
*RC U1474:A 7.082e-08
*RC DP_OP_148J1_126_1256\/U15:A 9.475e-08
*END

*R_NET p_0\[5\] 2.922e-02
*DRIVER U1531:Y
*CELL OAI21X1
*C2_R1_C1 1.461e-02 1.133e-05 1.461e-02 
*LOADS
*RC U1475:A 7.082e-08
*RC DP_OP_148J1_126_1256\/U17:A 9.475e-08
*END

*R_NET p_0\[4\] 2.922e-02
*DRIVER U2435:Y
*CELL OAI21X1
*C2_R1_C1 1.461e-02 1.133e-05 1.461e-02 
*LOADS
*RC U2436:A 7.082e-08
*RC DP_OP_148J1_126_1256\/U19:A 9.475e-08
*END

*R_NET p_0\[3\] 3.277e-02
*DRIVER U5173:Y
*CELL OAI21X1
*C2_R1_C1 1.638e-02 1.133e-05 1.638e-02 
*LOADS
*RC U3256:A 9.092e-08
*RC DP_OP_148J1_126_1256\/U21:A 9.475e-08
*END

*R_NET p_0\[2\] 4.172e-02
*DRIVER U3262:Y
*CELL NAND2X2
*C2_R1_C1 2.086e-02 1.700e-05 2.086e-02 
*LOADS
*RC U1549:A 7.082e-08
*RC U7810:A 7.082e-08
*RC DP_OP_148J1_126_1256\/U23:A 9.475e-08
*END

*R_NET p_0\[1\] 3.189e-02
*DRIVER U1587:Y
*CELL OAI21X1
*C2_R1_C1 1.594e-02 1.133e-05 1.594e-02 
*LOADS
*RC U3253:A 9.092e-08
*RC DP_OP_148J1_126_1256\/U25:C 8.977e-08
*END

*R_NET ROM_Buffer\[0\]\[7\] 2.377e-02
*DRIVER ROM_Buffer_reg\[0\]\[7\]:Q
*CELL DFFRX1
*C2_R1_C1 1.188e-02 1.133e-05 1.188e-02 
*LOADS
*RC U5795:B 7.131e-08
*RC U9513:B1 6.338e-08
*END

*R_NET ROM_Buffer\[0\]\[6\] 2.377e-02
*DRIVER ROM_Buffer_reg\[0\]\[6\]:Q
*CELL DFFRX1
*C2_R1_C1 1.188e-02 1.133e-05 1.188e-02 
*LOADS
*RC U5788:B 7.131e-08
*RC U9517:B1 6.338e-08
*END

*R_NET ROM_Buffer\[0\]\[5\] 2.377e-02
*DRIVER ROM_Buffer_reg\[0\]\[5\]:Q
*CELL DFFRX1
*C2_R1_C1 1.188e-02 1.133e-05 1.188e-02 
*LOADS
*RC U5796:B 7.131e-08
*RC U9521:B1 6.338e-08
*END

*R_NET ROM_Buffer\[0\]\[4\] 2.377e-02
*DRIVER ROM_Buffer_reg\[0\]\[4\]:Q
*CELL DFFRX1
*C2_R1_C1 1.188e-02 1.133e-05 1.188e-02 
*LOADS
*RC U5797:B 7.131e-08
*RC U9525:B1 6.338e-08
*END

*R_NET ROM_Buffer\[0\]\[3\] 2.377e-02
*DRIVER ROM_Buffer_reg\[0\]\[3\]:Q
*CELL DFFRX1
*C2_R1_C1 1.188e-02 1.133e-05 1.188e-02 
*LOADS
*RC U5798:B 7.131e-08
*RC U9529:B1 6.338e-08
*END

*R_NET ROM_Buffer\[0\]\[2\] 2.270e-02
*DRIVER ROM_Buffer_reg\[0\]\[2\]:Q
*CELL DFFRX1
*C2_R1_C1 1.135e-02 1.133e-05 1.135e-02 
*LOADS
*RC U2073:B 6.524e-08
*RC U9533:B1 6.338e-08
*END

*R_NET ROM_Buffer\[0\]\[1\] 2.377e-02
*DRIVER ROM_Buffer_reg\[0\]\[1\]:Q
*CELL DFFRX1
*C2_R1_C1 1.188e-02 1.133e-05 1.188e-02 
*LOADS
*RC U5799:B 7.131e-08
*RC U9537:B1 6.338e-08
*END

*R_NET ROM_Buffer\[0\]\[0\] 2.377e-02
*DRIVER ROM_Buffer_reg\[0\]\[0\]:Q
*CELL DFFRX1